Circuit: * C:\Users\chris\Documents\INGEGNERIA\Elettronica\Progetto1\Grafici nuovi\Spice1_1.asc

Ignoring empty pin current: Ix(u1:1)
Ignoring empty pin current: Ix(u1:2)
Ignoring empty pin current: Ix(u3:1)
Ignoring empty pin current: Ix(u3:2)
Ignoring empty pin current: Ix(u2:1)
Ignoring empty pin current: Ix(u2:2)
Direct Newton iteration for .op point succeeded.

Date: Tue Nov 23 21:17:47 2021
Total elapsed time: 0.144 seconds.

tnom = 27
temp = 27
method = trap
totiter = 3
traniter = 0
tranpoints = 0
accept = 0
rejected = 0
matrix size = 13
fillins = 6
solver = Normal
Matrix Compiler1: 626 bytes object code size
Matrix Compiler2: 887 bytes object code size
