Circuit: * C:\Users\chris\Documents\INGEGNERIA\Elettronica\Progetto1\Spice1_1_1.8.4.asc

Direct Newton iteration for .op point succeeded.
Ignoring empty pin current: Ix(u1:1)
Ignoring empty pin current: Ix(u1:2)
Ignoring empty pin current: Ix(u3:1)
Ignoring empty pin current: Ix(u3:2)
Ignoring empty pin current: Ix(u2:1)
Ignoring empty pin current: Ix(u2:2)
Ignoring empty pin current: Ix(u1:1)
Ignoring empty pin current: Ix(u1:2)
Ignoring empty pin current: Ix(u3:1)
Ignoring empty pin current: Ix(u3:2)
Ignoring empty pin current: Ix(u2:1)
Ignoring empty pin current: Ix(u2:2)

Date: Tue Nov 23 12:21:18 2021
Total elapsed time: 0.029 seconds.

tnom = 27
temp = 27
method = modified trap
totiter = 2101
traniter = 2098
tranpoints = 1050
accept = 1048
rejected = 2
matrix size = 13
fillins = 6
solver = Normal
Matrix Compiler1: 626 bytes object code size  0.1/0.1/[0.1]
Matrix Compiler2: off  [0.1]/0.1/0.1

