Circuit: * C:\Users\chris\Documents\INGEGNERIA\Elettronica\Progetto1\Spice1_3.asc


Date: Tue Nov 23 12:37:40 2021
Total elapsed time: 0.026 seconds.

tnom = 27
temp = 27
method = trap
totiter = 0
traniter = 0
tranpoints = 0
accept = 0
rejected = 0
matrix size = 5
fillins = 1
solver = Normal

