Circuit: * C:\Users\chris\Documents\INGEGNERIA\Elettronica\Progetto1\Spice1_1.asc

Direct Newton iteration for .op point succeeded.
Ignoring empty pin current: Ix(u1:1)
Ignoring empty pin current: Ix(u1:2)
Ignoring empty pin current: Ix(u3:1)
Ignoring empty pin current: Ix(u3:2)
Ignoring empty pin current: Ix(u2:1)
Ignoring empty pin current: Ix(u2:2)
Ignoring empty pin current: Ix(u1:1)
Ignoring empty pin current: Ix(u1:2)
Ignoring empty pin current: Ix(u3:1)
Ignoring empty pin current: Ix(u3:2)
Ignoring empty pin current: Ix(u2:1)
Ignoring empty pin current: Ix(u2:2)
.step x=-0.4
.step x=-0.3
.step x=-0.2
.step x=-0.1
.step x=-2.77556e-017
.step x=0.1
.step x=0.2
.step x=0.3
.step x=0.4
.step x=0.5

Date: Tue Nov 23 19:02:17 2021
Total elapsed time: 0.290 seconds.

tnom = 27
temp = 27
method = modified trap
totiter = 2085
traniter = 2082
tranpoints = 1042
accept = 1042
rejected = 0
matrix size = 13
fillins = 6
solver = Normal
Matrix Compiler1: 626 bytes object code size  0.1/0.1/[0.0]
Matrix Compiler2: off  [0.1]/0.1/0.1

