Circuit: * C:\Users\chris\Documents\INGEGNERIA\Elettronica\Progetto1\Spice1_2.asc

Ignoring empty pin current: Ix(u1:1)
Ignoring empty pin current: Ix(u1:2)

Date: Fri Nov 19 19:20:19 2021
Total elapsed time: 0.035 seconds.

tnom = 27
temp = 27
method = trap
totiter = 0
traniter = 0
tranpoints = 0
accept = 0
rejected = 0
matrix size = 5
fillins = 1
solver = Normal

